BEGIN NEW DATA CASE
NODA SETUP
TEMP.AFT
HOMOGENEOUS LINE
   -1.
    4.    16.
    1.    12.
    3.    0.5     1.      3
NO SYMMETRY
NODA SETUP ENDS
CABLE CONSTANTS
CABLE PARAMETERS
    2    1    6         1    1              0    0    0
    1    1    1    1    1    1
   0.00463   0.01257   0.01257
 7.1221E-8        1.        1.        1.
   0.00463   0.01257   0.01257
 7.1221E-8        1.        1.        1.
   0.00463   0.01257   0.01257
 7.1221E-8        1.        1.        1.
    0.1245     0.127     0.227
   2.84E-7      250.        1.        3.
       0.0  0.004765  0.004765
2.46925E-7        1.        1.        1.
       0.0  0.004765  0.004765
2.46925E-7        1.        1.        1.
      13.5      -6.6      13.5       0.0      13.5       6.6        1.       10.
      17.6     -4.65      17.6      4.65
           1.E3            50.    6   10    1.E3
           1.E3           1.E6              1.E3
BLANK CARD ENDING FREQUENCY CARDS
BLANK CARD ENDING CABLE CONSTANTS
BEGIN NEW DATA CASE
BLANK CARD
